Header
  CHECK KEYWORDS Warn
  Mesh DB "." "meshElmer"
  Include Path ""
  Results Directory ""
End

! magnet remanence
$ br = 1.42/(1.257e-6)
! angular velocity
$ w = 2*pi*8.3
! magnet positioning angles
$ angle1 = 0*pi/180
$ angle2 = 0*pi/180

! magnet rotation direction
! clockwise: 		rotDir == -1
! anti-clockwise: 	rotDir == 1
$ rotDir = -1

! liquid metal conductivity
$ sigma = 3.27e6

! solver convergence tolerance
$ conv = 1.0e-6
$ conv1 = 1.0e-6

Simulation
  Max Output Level = 2
  Coordinate System = Cartesian
  Simulation Type = steady

  Steady State Max Iterations = 100000
  Steady State Min Iterations = 100000

  Timestepping Method = BDF
  BDF Order = 2
  Output Intervals = 0
  Post File = case.vtu
End

Constants
  Permeability of Vacuum = 1.257e-6
End

Body 1
  Target Bodies(1) = 3
  Name = "Air"
  Equation = 1
  Material = 1
End

Body 2
  Target Bodies(1) = 1
  Name = "Duct"
  Equation = 1
  Material = 2
  Body Force = 2
End

Body 3
  Target Bodies(1) = 2
  Name = "Magnet"
  Equation = 1
  Material = 3
  Body Force = 1
End

Solver 1
  Equation = OpenFOAM2Elmer
  Procedure = "OpenFOAM2Elmer" "OpenFOAM2ElmerSolver"

  Target Variable 1 = String "OF U1"
  Target Variable 2 = String "OF U2"
  Target Variable 3 = String "OF U3"
End

Solver 2
  Equation = "MGDynamics"
  Variable = "AV[AV re:1 AV im:1]"
  Procedure = "MagnetoDynamics" "WhitneyAVHarmonicSolver"

  Angular Frequency = Real $w

  Linear System Symmetric = True
  Linear System Solver = iterative
  Linear System Preconditioning = none
  Linear System Residual Output = 50
  Linear System Max Iterations = 5000
  Linear System Iterative Method = BiCGStabl
  BiCGStabl polynomial degree = 4
  Linear System Abort Not Converged = False
  Linear System Convergence Tolerance = $conv
  Nonlinear System Convergence Tolerance = $conv1
  Nonlinear System Max Iterations = 10
  Nonlinear System Newton After Iterations = 3
  Nonlinear System Newton After Tolerance = $conv
  Nonlinear System Relaxation Factor = 1

  Exported Variable 1 = -dg "OF U1"
  Exported Variable 1 Mask = String "material: mapping"
  Exported Variable 2 = -dg "OF U2"
  Exported Variable 2 Mask = String "material: mapping"
  Exported Variable 3 = -dg "OF U3"
  Exported Variable 3 Mask = String "material: mapping"
End

Solver 3
  Equation = "MGDynamicsCalc"
  Procedure = "MagnetoDynamics" "MagnetoDynamicsCalcFields"
  Potential Variable = String "AV"

  Calculate Current Density = Logical True
  Calculate Electric Field = Logical False
  Calculate Magnetic Field Strength = Logical False
  Calculate Joule Heating = Logical False
  Calculate JxB = Logical True

  Linear System Symmetric = True
  Linear System Solver = "Iterative"
  Linear System Preconditioning = none
  Linear System Residual Output = 0
  Linear System Max Iterations = 5000
  Linear System Iterative Method = CG
  Linear System Convergence Tolerance = $conv
End

Solver 4
  Equation = ElmerToOpenFOAM
  Procedure = "Elmer2OpenFOAM" "Elmer2OpenFOAMSolver"

  Target Variable 1 = jxb re 1
  Target Variable 2 = jxb re 2
  Target Variable 3 = jxb re 3
End

Equation 1
  Name = "MGDyn"
  Active Solvers(4) = 1 2 3 4
End

Body Force 1				
  Magnetization 1 = Real MATC "br*cos(angle1)"
  Magnetization Im 1 = Real MATC "rotDir*br*sin(angle2)*sin(angle1)"

  Magnetization 2 = Real 0
  Magnetization Im 2 = Real MATC "rotDir*br*cos(angle2)"

  Magnetization 3 = Real MATC "-br*sin(angle1)"
  Magnetization Im 3 = Real MATC "rotDir*br*sin(angle2)*cos(angle1)"
End

Body Force 2
  Lorentz velocity 1 = Equals "OF U1"
  Lorentz velocity 2 = Equals "OF U2"
  Lorentz velocity 3 = Equals "OF U3"
End

Material 1
  Name = "air"
  Electric Conductivity = 0
  Relative Permittivity = 1
  Relative Permeability = 1
End

Material 2
  Name = "gallium"
  Electric Conductivity = $sigma
  Relative Permittivity = 1
  Relative Permeability = 1
  mapping = Logical True
End

Material 3
  Name = "magnets"
  Electric Conductivity = 0
  Relative Permittivity = 1
  Relative Permeability = 1
End

Boundary Condition 1
  Name = "outer"
  Target Boundaries(1) = 4
  AV Re {e} = Real 0.0
  AV Im {e} = Real 0.0
End
